<?xml version="1.0" encoding="UTF-8"?>

<!-- generated on Sab  2 Mag 12:54:52 2020 by Eclipse SUMO netedit Version be133264
<configuration xmlns:xsi="http://www.w3.org/2001/XMLSchema-instance" xsi:noNamespaceSchemaLocation="http://sumo.dlr.de/xsd/netconvertConfiguration.xsd">

    <input>
        <sumo-net-file value="/Users/Enrico/Documents/V2X/SUMO/incrocio.net.xml"/>
    </input>

    <output>
        <output-file value="/Users/Enrico/Documents/V2X/SUMO/incrocio.net.xml"/>
    </output>

    <processing>
        <geometry.min-radius.fix.railways value="false"/>
        <geometry.max-grade.fix value="false"/>
        <offset.disable-normalization value="true"/>
        <lefthand value="false"/>
    </processing>

    <junctions>
        <no-turnarounds value="true"/>
        <junctions.corner-detail value="5"/>
        <junctions.limit-turn-speed value="0.8"/>
        <rectangular-lane-cut value="false"/>
    </junctions>

    <pedestrian>
        <walkingareas value="false"/>
    </pedestrian>

    <report>
        <aggregate-warnings value="5"/>
    </report>

</configuration>
-->

<net version="1.6" junctionCornerDetail="5" limitTurnSpeed="0.80" xmlns:xsi="http://www.w3.org/2001/XMLSchema-instance" xsi:noNamespaceSchemaLocation="http://sumo.dlr.de/xsd/net_file.xsd">

    <location netOffset="0.00,0.00" convBoundary="-100.00,-100.00,100.00,100.00" origBoundary="-10000000000.00,-10000000000.00,10000000000.00,10000000000.00" projParameter="!"/>

    <edge id=":centro_0" function="internal">
        <lane id=":centro_0_0" index="0" speed="2.48" length="9.03" shape="-8.00,13.60 -8.35,11.15 -9.40,9.40 -11.15,8.35 -13.60,8.00"/>
    </edge>
    <edge id=":centro_1" function="internal">
        <lane id=":centro_1_0" index="0" speed="10.00" length="27.20" shape="-4.80,13.60 -4.80,-13.60"/>
    </edge>
    <edge id=":centro_2" function="internal">
        <lane id=":centro_2_0" index="0" speed="3.95" length="13.42" shape="-1.60,13.60 -0.65,6.95 2.20,2.20 3.20,1.60"/>
    </edge>
    <edge id=":centro_12" function="internal">
        <lane id=":centro_12_0" index="0" speed="3.95" length="11.09" shape="3.20,1.60 6.95,-0.65 13.60,-1.60"/>
    </edge>
    <edge id=":centro_3" function="internal">
        <lane id=":centro_3_0" index="0" speed="2.48" length="9.03" shape="13.60,8.00 11.15,8.35 9.40,9.40 8.35,11.15 8.00,13.60"/>
    </edge>
    <edge id=":centro_4" function="internal">
        <lane id=":centro_4_0" index="0" speed="10.00" length="27.20" shape="13.60,4.80 -13.60,4.80"/>
    </edge>
    <edge id=":centro_5" function="internal">
        <lane id=":centro_5_0" index="0" speed="3.95" length="13.42" shape="13.60,1.60 6.95,0.65 2.20,-2.20 1.60,-3.20"/>
    </edge>
    <edge id=":centro_13" function="internal">
        <lane id=":centro_13_0" index="0" speed="3.95" length="11.09" shape="1.60,-3.20 -0.65,-6.95 -1.60,-13.60"/>
    </edge>
    <edge id=":centro_6" function="internal">
        <lane id=":centro_6_0" index="0" speed="2.48" length="9.03" shape="8.00,-13.60 8.35,-11.15 9.40,-9.40 11.15,-8.35 13.60,-8.00"/>
    </edge>
    <edge id=":centro_7" function="internal">
        <lane id=":centro_7_0" index="0" speed="10.00" length="27.20" shape="4.80,-13.60 4.80,13.60"/>
    </edge>
    <edge id=":centro_8" function="internal">
        <lane id=":centro_8_0" index="0" speed="3.95" length="13.42" shape="1.60,-13.60 0.65,-6.95 -2.20,-2.20 -3.20,-1.60"/>
    </edge>
    <edge id=":centro_14" function="internal">
        <lane id=":centro_14_0" index="0" speed="3.95" length="11.09" shape="-3.20,-1.60 -6.95,0.65 -13.60,1.60"/>
    </edge>
    <edge id=":centro_9" function="internal">
        <lane id=":centro_9_0" index="0" speed="2.48" length="9.03" shape="-13.60,-8.00 -11.15,-8.35 -9.40,-9.40 -8.35,-11.15 -8.00,-13.60"/>
    </edge>
    <edge id=":centro_10" function="internal">
        <lane id=":centro_10_0" index="0" speed="10.00" length="27.20" shape="-13.60,-4.80 13.60,-4.80"/>
    </edge>
    <edge id=":centro_11" function="internal">
        <lane id=":centro_11_0" index="0" speed="3.95" length="13.42" shape="-13.60,-1.60 -6.95,-0.65 -2.20,2.20 -1.60,3.20"/>
    </edge>
    <edge id=":centro_15" function="internal">
        <lane id=":centro_15_0" index="0" speed="3.95" length="11.09" shape="-1.60,3.20 0.65,6.95 1.60,13.60"/>
    </edge>

    <edge id="centr-to-destr" from="centro" to="destra" priority="-1">
        <lane id="centr-to-destr_0" index="0" speed="10.00" length="86.40" shape="13.60,-8.00 100.00,-8.00"/>
        <lane id="centr-to-destr_1" index="1" speed="10.00" length="86.40" shape="13.60,-4.80 100.00,-4.80"/>
        <lane id="centr-to-destr_2" index="2" speed="10.00" length="86.40" shape="13.60,-1.60 100.00,-1.60"/>
    </edge>
    <edge id="centr-to-sinis" from="centro" to="sinistra" priority="-1">
        <lane id="centr-to-sinis_0" index="0" speed="10.00" length="86.40" shape="-13.60,8.00 -100.00,8.00"/>
        <lane id="centr-to-sinis_1" index="1" speed="10.00" length="86.40" shape="-13.60,4.80 -100.00,4.80"/>
        <lane id="centr-to-sinis_2" index="2" speed="10.00" length="86.40" shape="-13.60,1.60 -100.00,1.60"/>
    </edge>
    <edge id="centr-to-sopra" from="centro" to="sopra" priority="-1">
        <lane id="centr-to-sopra_0" index="0" speed="10.00" length="86.40" shape="8.00,13.60 8.00,100.00"/>
        <lane id="centr-to-sopra_1" index="1" speed="10.00" length="86.40" shape="4.80,13.60 4.80,100.00"/>
        <lane id="centr-to-sopra_2" index="2" speed="10.00" length="86.40" shape="1.60,13.60 1.60,100.00"/>
    </edge>
    <edge id="centr-to-sotto" from="centro" to="sotto" priority="-1">
        <lane id="centr-to-sotto_0" index="0" speed="10.00" length="86.40" shape="-8.00,-13.60 -8.00,-100.00"/>
        <lane id="centr-to-sotto_1" index="1" speed="10.00" length="86.40" shape="-4.80,-13.60 -4.80,-100.00"/>
        <lane id="centr-to-sotto_2" index="2" speed="10.00" length="86.40" shape="-1.60,-13.60 -1.60,-100.00"/>
    </edge>
    <edge id="destr-to-centr" from="destra" to="centro" priority="-1">
        <lane id="destr-to-centr_0" index="0" speed="10.00" length="86.40" shape="100.00,8.00 13.60,8.00"/>
        <lane id="destr-to-centr_1" index="1" speed="10.00" length="86.40" shape="100.00,4.80 13.60,4.80"/>
        <lane id="destr-to-centr_2" index="2" speed="10.00" length="86.40" shape="100.00,1.60 13.60,1.60"/>
    </edge>
    <edge id="sinis-to-centr" from="sinistra" to="centro" priority="-1">
        <lane id="sinis-to-centr_0" index="0" speed="10.00" length="86.40" shape="-100.00,-8.00 -13.60,-8.00"/>
        <lane id="sinis-to-centr_1" index="1" speed="10.00" length="86.40" shape="-100.00,-4.80 -13.60,-4.80"/>
        <lane id="sinis-to-centr_2" index="2" speed="10.00" length="86.40" shape="-100.00,-1.60 -13.60,-1.60"/>
    </edge>
    <edge id="sopra-to-centr" from="sopra" to="centro" priority="-1">
        <lane id="sopra-to-centr_0" index="0" speed="10.00" length="86.40" shape="-8.00,100.00 -8.00,13.60"/>
        <lane id="sopra-to-centr_1" index="1" speed="10.00" length="86.40" shape="-4.80,100.00 -4.80,13.60"/>
        <lane id="sopra-to-centr_2" index="2" speed="10.00" length="86.40" shape="-1.60,100.00 -1.60,13.60"/>
    </edge>
    <edge id="sotto-to-centr" from="sotto" to="centro" priority="-1">
        <lane id="sotto-to-centr_0" index="0" speed="10.00" length="86.40" shape="8.00,-100.00 8.00,-13.60"/>
        <lane id="sotto-to-centr_1" index="1" speed="10.00" length="86.40" shape="4.80,-100.00 4.80,-13.60"/>
        <lane id="sotto-to-centr_2" index="2" speed="10.00" length="86.40" shape="1.60,-100.00 1.60,-13.60"/>
    </edge>

    <tlLogic id="centro" type="static" programID="0" offset="0">
        <phase duration="33" state="GGgrrrGGgrrr"/>
        <phase duration="3"  state="yygrrryygrrr"/>
        <phase duration="6"  state="rrGrrrrrGrrr"/>
        <phase duration="3"  state="rryrrrrryrrr"/>
        <phase duration="33" state="rrrGGgrrrGGg"/>
        <phase duration="3"  state="rrryygrrryyg"/>
        <phase duration="6"  state="rrrrrGrrrrrG"/>
        <phase duration="3"  state="rrrrryrrrrry"/>
    </tlLogic>

    <junction id="centro" type="traffic_light" x="0.00" y="0.00" incLanes="sopra-to-centr_0 sopra-to-centr_1 sopra-to-centr_2 destr-to-centr_0 destr-to-centr_1 destr-to-centr_2 sotto-to-centr_0 sotto-to-centr_1 sotto-to-centr_2 sinis-to-centr_0 sinis-to-centr_1 sinis-to-centr_2" intLanes=":centro_0_0 :centro_1_0 :centro_12_0 :centro_3_0 :centro_4_0 :centro_13_0 :centro_6_0 :centro_7_0 :centro_14_0 :centro_9_0 :centro_10_0 :centro_15_0" shape="-9.60,13.60 9.60,13.60 10.04,11.38 10.60,10.60 11.38,10.04 12.38,9.71 13.60,9.60 13.60,-9.60 11.38,-10.04 10.60,-10.60 10.04,-11.38 9.71,-12.38 9.60,-13.60 -9.60,-13.60 -10.04,-11.38 -10.60,-10.60 -11.38,-10.04 -12.38,-9.71 -13.60,-9.60 -13.60,9.60 -11.38,10.04 -10.60,10.60 -10.04,11.38 -9.71,12.38">
        <request index="0"  response="000000000000" foes="000000000000" cont="0"/>
        <request index="1"  response="100000000000" foes="110100010000" cont="0"/>
        <request index="2"  response="100010100000" foes="100010110000" cont="1"/>
        <request index="3"  response="000000000000" foes="000000000000" cont="0"/>
        <request index="4"  response="000010000110" foes="100010000110" cont="0"/>
        <request index="5"  response="010110000100" foes="010110000100" cont="1"/>
        <request index="6"  response="000000000000" foes="000000000000" cont="0"/>
        <request index="7"  response="000000100000" foes="010000110100" cont="0"/>
        <request index="8"  response="100000100010" foes="110000100010" cont="1"/>
        <request index="9"  response="000000000000" foes="000000000000" cont="0"/>
        <request index="10" response="000110000010" foes="000110100010" cont="0"/>
        <request index="11" response="000100010110" foes="000100010110" cont="1"/>
    </junction>
    <junction id="destra" type="dead_end" x="100.00" y="0.00" incLanes="centr-to-destr_0 centr-to-destr_1 centr-to-destr_2" intLanes="" shape="100.00,0.00 100.00,-9.60 100.00,0.00"/>
    <junction id="sinistra" type="dead_end" x="-100.00" y="0.00" incLanes="centr-to-sinis_0 centr-to-sinis_1 centr-to-sinis_2" intLanes="" shape="-100.00,0.00 -100.00,9.60 -100.00,0.00"/>
    <junction id="sopra" type="dead_end" x="0.00" y="100.00" incLanes="centr-to-sopra_0 centr-to-sopra_1 centr-to-sopra_2" intLanes="" shape="0.00,100.00 9.60,100.00 0.00,100.00"/>
    <junction id="sotto" type="dead_end" x="0.00" y="-100.00" incLanes="centr-to-sotto_0 centr-to-sotto_1 centr-to-sotto_2" intLanes="" shape="0.00,-100.00 -9.60,-100.00 0.00,-100.00"/>

    <junction id=":centro_12_0" type="internal" x="3.20" y="1.60" incLanes=":centro_2_0 sotto-to-centr_1" intLanes=":centro_4_0 :centro_5_0 :centro_7_0 :centro_11_0"/>
    <junction id=":centro_13_0" type="internal" x="1.60" y="-3.20" incLanes=":centro_5_0 sinis-to-centr_1" intLanes=":centro_2_0 :centro_7_0 :centro_8_0 :centro_10_0"/>
    <junction id=":centro_14_0" type="internal" x="-3.20" y="-1.60" incLanes=":centro_8_0 sopra-to-centr_1" intLanes=":centro_1_0 :centro_5_0 :centro_10_0 :centro_11_0"/>
    <junction id=":centro_15_0" type="internal" x="-1.60" y="3.20" incLanes=":centro_11_0 destr-to-centr_1" intLanes=":centro_1_0 :centro_2_0 :centro_4_0 :centro_8_0"/>

    <connection from="destr-to-centr" to="centr-to-sopra" fromLane="0" toLane="0" via=":centro_3_0" tl="centro" linkIndex="3" dir="r" state="O"/>
    <connection from="destr-to-centr" to="centr-to-sinis" fromLane="1" toLane="1" via=":centro_4_0" tl="centro" linkIndex="4" dir="s" state="o"/>
    <connection from="destr-to-centr" to="centr-to-sotto" fromLane="2" toLane="2" via=":centro_5_0" tl="centro" linkIndex="5" dir="l" state="o"/>
    <connection from="sinis-to-centr" to="centr-to-sotto" fromLane="0" toLane="0" via=":centro_9_0" tl="centro" linkIndex="9" dir="r" state="O"/>
    <connection from="sinis-to-centr" to="centr-to-destr" fromLane="1" toLane="1" via=":centro_10_0" tl="centro" linkIndex="10" dir="s" state="o"/>
    <connection from="sinis-to-centr" to="centr-to-sopra" fromLane="2" toLane="2" via=":centro_11_0" tl="centro" linkIndex="11" dir="l" state="o"/>
    <connection from="sopra-to-centr" to="centr-to-sinis" fromLane="0" toLane="0" via=":centro_0_0" tl="centro" linkIndex="0" dir="r" state="O"/>
    <connection from="sopra-to-centr" to="centr-to-sotto" fromLane="1" toLane="1" via=":centro_1_0" tl="centro" linkIndex="1" dir="s" state="O"/>
    <connection from="sopra-to-centr" to="centr-to-destr" fromLane="2" toLane="2" via=":centro_2_0" tl="centro" linkIndex="2" dir="l" state="o"/>
    <connection from="sotto-to-centr" to="centr-to-destr" fromLane="0" toLane="0" via=":centro_6_0" tl="centro" linkIndex="6" dir="r" state="O"/>
    <connection from="sotto-to-centr" to="centr-to-sopra" fromLane="1" toLane="1" via=":centro_7_0" tl="centro" linkIndex="7" dir="s" state="O"/>
    <connection from="sotto-to-centr" to="centr-to-sinis" fromLane="2" toLane="2" via=":centro_8_0" tl="centro" linkIndex="8" dir="l" state="o"/>

    <connection from=":centro_0" to="centr-to-sinis" fromLane="0" toLane="0" dir="r" state="M"/>
    <connection from=":centro_1" to="centr-to-sotto" fromLane="0" toLane="1" dir="s" state="M"/>
    <connection from=":centro_2" to="centr-to-destr" fromLane="0" toLane="2" via=":centro_12_0" dir="l" state="m"/>
    <connection from=":centro_12" to="centr-to-destr" fromLane="0" toLane="2" dir="l" state="M"/>
    <connection from=":centro_3" to="centr-to-sopra" fromLane="0" toLane="0" dir="r" state="M"/>
    <connection from=":centro_4" to="centr-to-sinis" fromLane="0" toLane="1" dir="s" state="M"/>
    <connection from=":centro_5" to="centr-to-sotto" fromLane="0" toLane="2" via=":centro_13_0" dir="l" state="m"/>
    <connection from=":centro_13" to="centr-to-sotto" fromLane="0" toLane="2" dir="l" state="M"/>
    <connection from=":centro_6" to="centr-to-destr" fromLane="0" toLane="0" dir="r" state="M"/>
    <connection from=":centro_7" to="centr-to-sopra" fromLane="0" toLane="1" dir="s" state="M"/>
    <connection from=":centro_8" to="centr-to-sinis" fromLane="0" toLane="2" via=":centro_14_0" dir="l" state="m"/>
    <connection from=":centro_14" to="centr-to-sinis" fromLane="0" toLane="2" dir="l" state="M"/>
    <connection from=":centro_9" to="centr-to-sotto" fromLane="0" toLane="0" dir="r" state="M"/>
    <connection from=":centro_10" to="centr-to-destr" fromLane="0" toLane="1" dir="s" state="M"/>
    <connection from=":centro_11" to="centr-to-sopra" fromLane="0" toLane="2" via=":centro_15_0" dir="l" state="m"/>
    <connection from=":centro_15" to="centr-to-sopra" fromLane="0" toLane="2" dir="l" state="M"/>

</net>
